Version 4
SHEET 1 880 680
WIRE 384 -64 320 -64
WIRE 240 0 240 -64
WIRE 448 16 320 16
WIRE 384 48 384 -64
WIRE 320 64 320 16
WIRE 352 64 320 64
WIRE 448 80 448 16
WIRE 448 80 416 80
WIRE 96 96 0 96
WIRE 240 96 176 96
WIRE 352 96 240 96
WIRE 0 128 0 96
WIRE 240 128 240 96
WIRE 448 128 448 80
WIRE 0 240 0 208
WIRE 240 240 240 192
WIRE 448 240 448 208
WIRE 304 320 272 320
WIRE 384 320 384 112
WIRE 272 368 272 320
FLAG 0 240 0
FLAG 240 240 0
FLAG 448 240 0
FLAG 240 0 0
FLAG 272 368 0
SYMBOL voltage 0 112 R0
SYMATTR InstName V1
SYMATTR Value AC 1 0
SYMBOL res 192 80 R90
WINDOW 0 0 56 VBottom 2
WINDOW 3 32 56 VTop 2
SYMATTR InstName R1
SYMATTR Value 994
SYMBOL cap 224 128 R0
SYMATTR InstName C1
SYMATTR Value 800nF
SYMBOL res 432 112 R0
SYMATTR InstName R2
SYMATTR Value 10k
SYMBOL OpAmps\\UniversalOpamp2 384 80 R0
SYMATTR InstName U1
SYMBOL voltage 336 -64 R90
WINDOW 0 -32 56 VBottom 2
WINDOW 3 32 56 VTop 2
SYMATTR InstName V2
SYMATTR Value 100
SYMBOL voltage 400 320 R90
WINDOW 0 -32 56 VBottom 2
WINDOW 3 32 56 VTop 2
SYMATTR InstName V3
SYMATTR Value -100
TEXT 24 280 Left 2 !.ac dec 100 20 20000
