Version 4
SHEET 1 880 680
WIRE 192 64 48 64
WIRE 352 64 256 64
WIRE 48 112 48 64
WIRE 352 112 352 64
WIRE 48 224 48 192
WIRE 352 224 352 192
WIRE 352 224 48 224
WIRE 352 240 352 224
FLAG 352 240 0
SYMBOL voltage 48 96 R0
SYMATTR InstName V1
SYMATTR Value 10
SYMBOL cap 256 48 R90
WINDOW 0 0 32 VBottom 2
WINDOW 3 32 32 VTop 2
SYMATTR InstName C1
SYMATTR Value 220µ
SYMBOL res 336 96 R0
SYMATTR InstName R1
SYMATTR Value 1k
TEXT 14 264 Left 2 !.tran 0 1 0 0.001 startup
