Version 4
SHEET 1 880 680
WIRE 160 80 96 80
WIRE 288 80 224 80
WIRE 432 80 368 80
WIRE 96 128 96 80
WIRE 432 128 432 80
WIRE 96 240 96 208
WIRE 208 240 96 240
WIRE 432 240 432 208
WIRE 432 240 208 240
WIRE 208 256 208 240
FLAG 208 256 0
SYMBOL voltage 96 112 R0
SYMATTR InstName V1
SYMATTR Value AC 1 0
SYMBOL cap 224 64 R90
WINDOW 0 0 32 VBottom 2
WINDOW 3 32 32 VTop 2
SYMATTR InstName C1
SYMATTR Value 47n
SYMBOL ind 272 96 R270
WINDOW 0 32 56 VTop 2
WINDOW 3 5 56 VBottom 2
SYMATTR InstName L1
SYMATTR Value 220m
SYMBOL res 416 112 R0
SYMATTR InstName R1
SYMATTR Value 100
TEXT 216 296 Left 2 !.ac dec 1000 1 1500000
