Version 4
SHEET 1 880 680
WIRE 128 96 32 96
WIRE 256 96 208 96
WIRE 384 96 256 96
WIRE 32 128 32 96
WIRE 256 128 256 96
WIRE 32 240 32 208
WIRE 256 240 256 192
WIRE 256 240 32 240
WIRE 384 240 256 240
WIRE 256 272 256 240
FLAG 256 272 0
SYMBOL cap 240 128 R0
SYMATTR InstName C1
SYMATTR Value 1µ
SYMBOL res 224 80 R90
WINDOW 0 0 56 VBottom 2
WINDOW 3 32 56 VTop 2
SYMATTR InstName R1
SYMATTR Value 795
SYMBOL Misc\\signal 32 112 R0
WINDOW 123 24 132 Left 2
WINDOW 39 0 0 Left 0
SYMATTR InstName V1
SYMATTR Value ""
SYMATTR Value2 AC 1
TEXT 24 280 Left 2 !.ac dec 20 2 20K
